units(length='cm', time='s', quantity='mol', act_energy='kcal/mol')

ideal_gas(name='gas',
          elements="Ar",
          species="""Ar""",
          reactions='all',
          initial_state=state(temperature=300.0, pressure=OneAtm, mole_fractions='Ar:1.0'))

species(name='Ar',
      atoms='Ar:1',
      thermo=(NASA([200.00, 1000.00],
                   [ 2.5, 0.0, 0.0, 0.0, 0.0, 0.0, 0.0]),
              NASA([1000.00, 6000.00],
                   [ 2.5, 0.0, 0.0, 0.0, 0.0, 0.0, 0.0])))
