units(length='cm', time='s', quantity='mol', act_energy='kcal/mol')

ideal_gas(name='gas',
          elements="H C O N Ne Ar He Si S Cl",
          species="""N2 iBuOH(1) O2(2)""",
          reactions='all',
          initial_state=state(temperature=300.0, pressure=OneAtm))

#-------------------------------------------------------------------------------
# Species data
#-------------------------------------------------------------------------------

species(name='N2',
        atoms='N:2',
        thermo=(NASA([200.00, 1000.00],
                     [ 3.53101000E+00, -1.23661000E-04, -5.02999000E-07,
                       2.43531000E-09, -1.40881000E-12, -1.04698000E+03,
                       2.96747000E+00]),
                NASA([1000.00, 6000.00],
                     [ 2.95258000E+00,  1.39690000E-03, -4.92632000E-07,
                       7.86010000E-11, -4.60755000E-15, -9.23949000E+02,
                       5.87189000E+00])))

species(name='iBuOH(1)',
        atoms='O:1 H:10 C:4',
        thermo=(NASA([250.00, 995.00],
                     [ 3.43413000E+00,  2.42081000E-02,  4.71925000E-05,
                      -7.40900000E-08,  2.84309000E-11, -3.67538000E+04,
                       1.36121000E+01]),
                NASA([995.00, 5000.00],
                     [ 1.28027000E+01,  2.40684000E-02, -9.15947000E-06,
                       1.56144000E-09, -9.73970000E-14, -4.04757000E+04,
                      -4.08734000E+01])))

species(name='O2(2)',
        atoms='O:2',
        thermo=(NASA([100.00, 1102.89],
                     [ 3.53812598E+00, -1.19776173E-03,  5.21778986E-06,
                      -4.73172795E-09,  1.37958495E-12, -1.03915435E+03,
                       4.66496714E+00]),
                NASA([1102.89, 5000.00],
                     [ 3.14645572E+00,  1.73420526E-03, -8.25529518E-07,
                       1.63882193E-10, -1.18050139E-14, -1.04468394E+03,
                       6.17616863E+00])))
